REMARK  3 active torsions:
REMARK  status: ('A' for Active; 'I' for Inactive)
REMARK    1  A    between atoms: C2_2  and  C4_4 
REMARK    2  A    between atoms: C6_6  and  C7_7 
REMARK       I    between atoms: C7_7  and  N9_9 
REMARK    3  A    between atoms: C21_21  and  O22_22 
ROOT
ATOM      1  C1  T5M A1224      14.496   0.293  10.696  1.00 43.53     0.019 C 
ATOM      2  C2  T5M A1224      14.229  -0.478   9.404  1.00 43.93    -0.021 C 
ATOM      3  C3  T5M A1224      12.826  -0.117   8.913  1.00 45.91     0.019 C 
ATOM      4  C19 T5M A1224      15.239  -0.004   8.353  1.00 41.75     0.019 C 
ENDROOT
BRANCH   2   5
ATOM      5  C4  T5M A1224      14.350  -1.999   9.651  1.00 43.83    -0.017 A 
ATOM      6  C21 T5M A1224      13.457  -2.708  10.484  1.00 45.22     0.072 A 
ATOM      7  C20 T5M A1224      13.606  -4.069  10.681  1.00 46.70     0.038 A 
ATOM      8  C18 T5M A1224      14.625  -4.751  10.072  1.00 44.73     0.020 A 
ATOM      9  C6  T5M A1224      15.516  -4.087   9.255  1.00 41.60     0.032 A 
ATOM     10  C5  T5M A1224      15.373  -2.725   9.053  1.00 41.99     0.027 A 
BRANCH   6  11
ATOM     11  O22 T5M A1224      12.426  -2.077  11.113  1.00 51.12    -0.360 OA
ATOM     12  H22 T5M A1224      11.944  -2.666  11.608  1.00 48.90     0.217 HD
ENDBRANCH   6  11
BRANCH   9  13
ATOM     13  C7  T5M A1224      16.623  -4.829   8.590  1.00 43.14     0.254 C 
ATOM     14  N9  T5M A1224      16.787  -4.661   7.233  1.00 42.13    -0.340 N 
ATOM     15  C17 T5M A1224      15.657  -4.521   6.300  1.00 38.45     0.165 C 
ATOM     16  C10 T5M A1224      18.048  -4.927   6.519  1.00 43.93     0.165 C 
ATOM     17  C16 T5M A1224      16.196  -5.152   5.049  1.00 37.82    -0.032 A 
ATOM     18  C15 T5M A1224      15.542  -5.501   3.881  1.00 39.16     0.009 A 
ATOM     19  C11 T5M A1224      17.562  -5.382   5.171  1.00 40.66    -0.032 A 
ATOM     20  C14 T5M A1224      16.243  -6.074   2.842  1.00 41.83     0.001 A 
ATOM     21  C13 T5M A1224      17.603  -6.302   2.962  1.00 41.98     0.001 A 
ATOM     22  C12 T5M A1224      18.262  -5.957   4.120  1.00 39.85     0.009 A 
ATOM     23  O8  T5M A1224      17.340  -5.564   9.257  1.00 44.38    -0.267 OA
ENDBRANCH   9  13
ENDBRANCH   2   5
TORSDOF 3
